Circuit: * C:\Users\Damian\Desktop\Opener_V2.0\Spice\SpiceTests\Transistor_Tester.asc

Instance "m:u4:2": Length shorter than recommended for a level 3 MOSFET.
Instance "m:u3:2": Length shorter than recommended for a level 3 MOSFET.
Instance "m:u2:2": Length shorter than recommended for a level 3 MOSFET.
Instance "m:u1:2": Length shorter than recommended for a level 3 MOSFET.
Per .tran options, skipping operating point for transient analysis.

Date: Sat Oct 24 21:00:50 2020
Total elapsed time: 0.398 seconds.

tnom = 27
temp = 27
method = modified trap
totiter = 10676
traniter = 10676
tranpoints = 4989
accept = 4142
rejected = 847
matrix size = 26
fillins = 8
solver = Normal
Matrix Compiler1: 2.08 KB object code size  1.8/1.0/[0.7]
Matrix Compiler2: 2.41 KB object code size  0.9/1.1/[0.7]

